
OS:Version,
  {ce448acc-2d39-4786-a765-968d36592f3b}, !- Handle
  3.4.0;                                  !- Version Identifier

OS:SimulationControl,
  {44cb4487-b66d-491d-8914-7f00be27c1f8}, !- Handle
  Yes,                                    !- Do Zone Sizing Calculation
  Yes,                                    !- Do System Sizing Calculation
  ,                                       !- Do Plant Sizing Calculation
  No,                                     !- Run Simulation for Sizing Periods
  Yes;                                    !- Run Simulation for Weather File Run Periods

OS:Timestep,
  {83e0b431-62f2-4f22-9441-a3b99a1a903a}, !- Handle
  6;                                      !- Number of Timesteps per Hour

OS:RunPeriod,
  {7be397c0-9f2b-44d1-8359-0d41bfbdf5fa}, !- Handle
  Run Period 1,                           !- Name
  1,                                      !- Begin Month
  1,                                      !- Begin Day of Month
  12,                                     !- End Month
  31,                                     !- End Day of Month
  No,                                     !- Use Weather File Holidays and Special Days
  No,                                     !- Use Weather File Daylight Saving Period
  No,                                     !- Apply Weekend Holiday Rule
  Yes,                                    !- Use Weather File Rain Indicators
  Yes,                                    !- Use Weather File Snow Indicators
  1;                                      !- Number of Times Runperiod to be Repeated

OS:SurfaceConvectionAlgorithm:Inside,
  {68d35948-3b15-41a6-b616-7f37bba8dfdf}, !- Handle
  TARP;                                   !- Algorithm

OS:SurfaceConvectionAlgorithm:Outside,
  {9f0adf2e-c6ca-4655-987a-31ab47cb8095}, !- Handle
  DOE-2;                                  !- Algorithm

OS:HeatBalanceAlgorithm,
  {b81c5875-44af-4b99-aa1c-aa53012ba40e}, !- Handle
  ConductionTransferFunction,             !- Algorithm
  200;                                    !- Surface Temperature Upper Limit {C}

OS:ZoneAirHeatBalanceAlgorithm,
  {18231dd3-ecc3-42e9-8a77-1f346d03345a}, !- Handle
  ThirdOrderBackwardDifference;           !- Algorithm

OS:ConvergenceLimits,
  {d41f4ef6-306b-44ff-b1e7-62e7c7020e4b}, !- Handle
  1;                                      !- Minimum System Timestep {minutes}

OS:ShadowCalculation,
  {61e7e083-92cd-420c-9acd-4fd94b56484d}, !- Handle
  PolygonClipping,                        !- Shading Calculation Method
  ,                                       !- Shading Calculation Update Frequency Method
  20,                                     !- Shading Calculation Update Frequency
  15000,                                  !- Maximum Figures in Shadow Overlap Calculations
  ,                                       !- Polygon Clipping Algorithm
  512,                                    !- Pixel Counting Resolution
  ,                                       !- Sky Diffuse Modeling Algorithm
  No,                                     !- Output External Shading Calculation Results
  No,                                     !- Disable Self-Shading Within Shading Zone Groups
  No;                                     !- Disable Self-Shading From Shading Zone Groups to Other Zones

OS:Site,
  {86f1b866-7904-4f3d-83c8-19c930778250}, !- Handle
  Site 1,                                 !- Name
  41.77,                                  !- Latitude {deg}
  -87.75,                                 !- Longitude {deg}
  -6,                                     !- Time Zone {hr}
  190,                                    !- Elevation {m}
  ;                                       !- Terrain

OS:Site:GroundTemperature:BuildingSurface,
  {6cb00e49-b230-4ea4-b239-9efb154afd2c}, !- Handle
  19.527,                                 !- January Ground Temperature {C}
  19.502,                                 !- February Ground Temperature {C}
  19.536,                                 !- March Ground Temperature {C}
  19.598,                                 !- April Ground Temperature {C}
  20.002,                                 !- May Ground Temperature {C}
  21.64,                                  !- June Ground Temperature {C}
  22.225,                                 !- July Ground Temperature {C}
  22.375,                                 !- August Ground Temperature {C}
  21.449,                                 !- September Ground Temperature {C}
  20.121,                                 !- October Ground Temperature {C}
  19.802,                                 !- November Ground Temperature {C}
  19.633;                                 !- December Ground Temperature {C}

OS:Site:GroundTemperature:Deep,
  {3318cf5e-c297-4451-805e-ab3d3ee56c2a}, !- Handle
  19.527,                                 !- January Deep Ground Temperature {C}
  19.502,                                 !- February Deep Ground Temperature {C}
  19.536,                                 !- March Deep Ground Temperature {C}
  19.598,                                 !- April Deep Ground Temperature {C}
  20.002,                                 !- May Deep Ground Temperature {C}
  21.64,                                  !- June Deep Ground Temperature {C}
  22.225,                                 !- July Deep Ground Temperature {C}
  22.375,                                 !- August Deep Ground Temperature {C}
  21.449,                                 !- September Deep Ground Temperature {C}
  20.121,                                 !- October Deep Ground Temperature {C}
  19.802,                                 !- November Deep Ground Temperature {C}
  19.633;                                 !- December Deep Ground Temperature {C}

OS:Site:WaterMainsTemperature,
  {79d5e258-07e3-4769-b292-f2d2e7949477}, !- Handle
  Correlation,                            !- Calculation Method
  ,                                       !- Temperature Schedule Name
  9.69,                                   !- Annual Average Outdoor Air Temperature {C}
  28.1;                                   !- Maximum Difference In Monthly Average Outdoor Air Temperatures {deltaC}

OS:SizingPeriod:DesignDay,
  {e3185c49-dcd9-43ca-8902-99d9041e8532}, !- Handle
  Sizing Period Design Day 1,             !- Name
  -20.6,                                  !- Maximum Dry-Bulb Temperature {C}
  0,                                      !- Daily Dry-Bulb Temperature Range {deltaC}
  99063,                                  !- Barometric Pressure {Pa}
  4.9,                                    !- Wind Speed {m/s}
  270,                                    !- Wind Direction {deg}
  0,                                      !- Sky Clearness
  No,                                     !- Rain Indicator
  No,                                     !- Snow Indicator
  21,                                     !- Day of Month
  1,                                      !- Month
  WinterDesignDay,                        !- Day Type
  No,                                     !- Daylight Saving Time Indicator
  WetBulb,                                !- Humidity Condition Type
  ,                                       !- Humidity Condition Day Schedule Name
  -20.6,                                  !- Wetbulb or DewPoint at Maximum Dry-Bulb {C}
  ,                                       !- Humidity Ratio at Maximum Dry-Bulb {kgWater/kgDryAir}
  ,                                       !- Enthalpy at Maximum Dry-Bulb {J/kg}
  ;                                       !- Dry-Bulb Temperature Range Modifier Type

OS:SizingPeriod:DesignDay,
  {2dc2b372-3d00-4a17-a79c-0a4bcddec96f}, !- Handle
  Sizing Period Design Day 2,             !- Name
  33.2,                                   !- Maximum Dry-Bulb Temperature {C}
  10.7,                                   !- Daily Dry-Bulb Temperature Range {deltaC}
  99063,                                  !- Barometric Pressure {Pa}
  5.3,                                    !- Wind Speed {m/s}
  230,                                    !- Wind Direction {deg}
  1,                                      !- Sky Clearness
  No,                                     !- Rain Indicator
  No,                                     !- Snow Indicator
  21,                                     !- Day of Month
  7,                                      !- Month
  SummerDesignDay,                        !- Day Type
  No,                                     !- Daylight Saving Time Indicator
  WetBulb,                                !- Humidity Condition Type
  ,                                       !- Humidity Condition Day Schedule Name
  23.8,                                   !- Wetbulb or DewPoint at Maximum Dry-Bulb {C}
  ,                                       !- Humidity Ratio at Maximum Dry-Bulb {kgWater/kgDryAir}
  ,                                       !- Enthalpy at Maximum Dry-Bulb {J/kg}
  ;                                       !- Dry-Bulb Temperature Range Modifier Type

OS:ScheduleTypeLimits,
  {3c1904cc-6a5f-413a-9ce5-ada8256c43b4}, !- Handle
  Temperature,                            !- Name
  -60,                                    !- Lower Limit Value
  200,                                    !- Upper Limit Value
  CONTINUOUS,                             !- Numeric Type
  Temperature;                            !- Unit Type

OS:DefaultScheduleSet,
  {d64a4594-2524-4b97-8175-fe5adba11482}, !- Handle
  Default Schedules,                      !- Name
  ,                                       !- Hours of Operation Schedule Name
  {a0725c4c-8da4-4627-ab9d-3b270da61697}, !- Number of People Schedule Name
  {2d4cfc57-dac8-4d26-963a-68f22c985966}, !- People Activity Level Schedule Name
  {37ce4c9f-dd55-479d-aa87-b4731b030e36}, !- Lighting Schedule Name
  {702fb4f3-bbae-47fc-98ba-20e450b75a1b}, !- Electric Equipment Schedule Name
  {0c318848-7a76-4d20-9e32-2e380f010695}, !- Gas Equipment Schedule Name
  {adeff7c6-9bcd-45bb-9488-7c88140f4115}, !- Hot Water Equipment Schedule Name
  {7d3e9339-4526-43f7-a316-82a6f90c6f7e}, !- Infiltration Schedule Name
  ,                                       !- Steam Equipment Schedule Name
  ;                                       !- Other Equipment Schedule Name

OS:Schedule:Ruleset,
  {a0725c4c-8da4-4627-ab9d-3b270da61697}, !- Handle
  Medium Office Number of People Schedule, !- Name
  {6e8ec9f7-ddc9-47a9-ba04-0bca1f1986c2}, !- Schedule Type Limits Name
  {83d291d3-9d41-4430-befe-01412858b700}, !- Default Day Schedule Name
  {e2e0f9e6-ed21-4301-97a0-e663bcd3dcac}; !- Summer Design Day Schedule Name

OS:Schedule:Day,
  {83d291d3-9d41-4430-befe-01412858b700}, !- Handle
  Medium Office Number of People All Other Days Schedule, !- Name
  {6e8ec9f7-ddc9-47a9-ba04-0bca1f1986c2}, !- Schedule Type Limits Name
  ,                                       !- Interpolate to Timestep
  24,                                     !- Hour 1
  0,                                      !- Minute 1
  0;                                      !- Value Until Time 1

OS:Schedule:Day,
  {9dadecf1-2b7c-4e5f-9d16-1c79f10b8ac2}, !- Handle
  Medium Office Number of People Summer Design Day Schedule, !- Name
  ,                                       !- Schedule Type Limits Name
  ,                                       !- Interpolate to Timestep
  6,                                      !- Hour 1
  0,                                      !- Minute 1
  0,                                      !- Value Until Time 1
  22,                                     !- Hour 2
  0,                                      !- Minute 2
  1,                                      !- Value Until Time 2
  24,                                     !- Hour 3
  0,                                      !- Minute 3
  0.05;                                   !- Value Until Time 3

OS:Schedule:Day,
  {e2e0f9e6-ed21-4301-97a0-e663bcd3dcac}, !- Handle
  Medium Office Number of People Summer Design Day Schedule 1, !- Name
  {6e8ec9f7-ddc9-47a9-ba04-0bca1f1986c2}, !- Schedule Type Limits Name
  ,                                       !- Interpolate to Timestep
  6,                                      !- Hour 1
  0,                                      !- Minute 1
  0,                                      !- Value Until Time 1
  22,                                     !- Hour 2
  0,                                      !- Minute 2
  1,                                      !- Value Until Time 2
  24,                                     !- Hour 3
  0,                                      !- Minute 3
  0.05;                                   !- Value Until Time 3

OS:Schedule:Rule,
  {1ebab1a1-c5a6-4fcb-9a1f-d9c1f5a7f104}, !- Handle
  Medium Office Number of People Schedule Weekdays Rule, !- Name
  {a0725c4c-8da4-4627-ab9d-3b270da61697}, !- Schedule Ruleset Name
  1,                                      !- Rule Order
  {e75c5af6-09bb-40ac-a442-39d91bc44f6b}, !- Day Schedule Name
  ,                                       !- Apply Sunday
  Yes,                                    !- Apply Monday
  Yes,                                    !- Apply Tuesday
  Yes,                                    !- Apply Wednesday
  Yes,                                    !- Apply Thursday
  Yes;                                    !- Apply Friday

OS:Schedule:Day,
  {e75c5af6-09bb-40ac-a442-39d91bc44f6b}, !- Handle
  Medium Office Number of People Weekdays Schedule, !- Name
  {6e8ec9f7-ddc9-47a9-ba04-0bca1f1986c2}, !- Schedule Type Limits Name
  ,                                       !- Interpolate to Timestep
  6,                                      !- Hour 1
  0,                                      !- Minute 1
  0,                                      !- Value Until Time 1
  7,                                      !- Hour 2
  0,                                      !- Minute 2
  0.1,                                    !- Value Until Time 2
  8,                                      !- Hour 3
  0,                                      !- Minute 3
  0.2,                                    !- Value Until Time 3
  12,                                     !- Hour 4
  0,                                      !- Minute 4
  0.95,                                   !- Value Until Time 4
  13,                                     !- Hour 5
  0,                                      !- Minute 5
  0.5,                                    !- Value Until Time 5
  17,                                     !- Hour 6
  0,                                      !- Minute 6
  0.95,                                   !- Value Until Time 6
  18,                                     !- Hour 7
  0,                                      !- Minute 7
  0.7,                                    !- Value Until Time 7
  20,                                     !- Hour 8
  0,                                      !- Minute 8
  0.4,                                    !- Value Until Time 8
  22,                                     !- Hour 9
  0,                                      !- Minute 9
  0.1,                                    !- Value Until Time 9
  24,                                     !- Hour 10
  0,                                      !- Minute 10
  0.05;                                   !- Value Until Time 10

OS:Schedule:Rule,
  {f8cd3b96-067c-4ea8-873f-1e8c59dab445}, !- Handle
  Medium Office Number of People Schedule Saturday Rule, !- Name
  {a0725c4c-8da4-4627-ab9d-3b270da61697}, !- Schedule Ruleset Name
  0,                                      !- Rule Order
  {cf02e14c-2461-4d8c-a4b0-ecbd5c01078e}, !- Day Schedule Name
  ,                                       !- Apply Sunday
  ,                                       !- Apply Monday
  ,                                       !- Apply Tuesday
  ,                                       !- Apply Wednesday
  ,                                       !- Apply Thursday
  ,                                       !- Apply Friday
  Yes;                                    !- Apply Saturday

OS:Schedule:Day,
  {cf02e14c-2461-4d8c-a4b0-ecbd5c01078e}, !- Handle
  Medium Office Number of People Saturday Schedule, !- Name
  {6e8ec9f7-ddc9-47a9-ba04-0bca1f1986c2}, !- Schedule Type Limits Name
  ,                                       !- Interpolate to Timestep
  6,                                      !- Hour 1
  0,                                      !- Minute 1
  0,                                      !- Value Until Time 1
  8,                                      !- Hour 2
  0,                                      !- Minute 2
  0.1,                                    !- Value Until Time 2
  14,                                     !- Hour 3
  0,                                      !- Minute 3
  0.5,                                    !- Value Until Time 3
  17,                                     !- Hour 4
  0,                                      !- Minute 4
  0.1,                                    !- Value Until Time 4
  24,                                     !- Hour 5
  0,                                      !- Minute 5
  0;                                      !- Value Until Time 5

OS:ScheduleTypeLimits,
  {6e8ec9f7-ddc9-47a9-ba04-0bca1f1986c2}, !- Handle
  Fractional,                             !- Name
  0,                                      !- Lower Limit Value
  1,                                      !- Upper Limit Value
  Continuous;                             !- Numeric Type

OS:Schedule:Ruleset,
  {2d4cfc57-dac8-4d26-963a-68f22c985966}, !- Handle
  Medium Office People Activity Level Schedule, !- Name
  {d7aadd8c-174c-41a1-a1c7-5edfcc85571d}, !- Schedule Type Limits Name
  {9580ace8-d4ad-4aa0-94b8-b46e9f02cf9b}; !- Default Day Schedule Name

OS:Schedule:Day,
  {9580ace8-d4ad-4aa0-94b8-b46e9f02cf9b}, !- Handle
  Medium Office People Activity Level All Days Schedule, !- Name
  {d7aadd8c-174c-41a1-a1c7-5edfcc85571d}, !- Schedule Type Limits Name
  ,                                       !- Interpolate to Timestep
  24,                                     !- Hour 1
  0,                                      !- Minute 1
  120;                                    !- Value Until Time 1

OS:ScheduleTypeLimits,
  {d7aadd8c-174c-41a1-a1c7-5edfcc85571d}, !- Handle
  ActivityLevel,                          !- Name
  0,                                      !- Lower Limit Value
  ,                                       !- Upper Limit Value
  Continuous,                             !- Numeric Type
  ActivityLevel;                          !- Unit Type

OS:Schedule:Ruleset,
  {37ce4c9f-dd55-479d-aa87-b4731b030e36}, !- Handle
  Medium Office Lighting Schedule,        !- Name
  {6e8ec9f7-ddc9-47a9-ba04-0bca1f1986c2}, !- Schedule Type Limits Name
  {67119034-80cf-4b98-ac2a-d2b802cb5ae4}, !- Default Day Schedule Name
  {382bd7f1-5f09-45ae-bb86-e9ddae490858}, !- Summer Design Day Schedule Name
  {024aab51-07db-4d8f-a76f-0862a61f0294}; !- Winter Design Day Schedule Name

OS:Schedule:Day,
  {67119034-80cf-4b98-ac2a-d2b802cb5ae4}, !- Handle
  Medium Office Lighting All Other Days Schedule, !- Name
  {6e8ec9f7-ddc9-47a9-ba04-0bca1f1986c2}, !- Schedule Type Limits Name
  ,                                       !- Interpolate to Timestep
  24,                                     !- Hour 1
  0,                                      !- Minute 1
  0.05;                                   !- Value Until Time 1

OS:Schedule:Day,
  {200511f5-d76b-4b40-891a-166b60738838}, !- Handle
  Medium Office Lighting Summer Design Day Schedule, !- Name
  ,                                       !- Schedule Type Limits Name
  ,                                       !- Interpolate to Timestep
  6,                                      !- Hour 1
  0,                                      !- Minute 1
  1,                                      !- Value Until Time 1
  24,                                     !- Hour 2
  0,                                      !- Minute 2
  0;                                      !- Value Until Time 2

OS:Schedule:Day,
  {382bd7f1-5f09-45ae-bb86-e9ddae490858}, !- Handle
  Medium Office Lighting Summer Design Day Schedule 1, !- Name
  {6e8ec9f7-ddc9-47a9-ba04-0bca1f1986c2}, !- Schedule Type Limits Name
  ,                                       !- Interpolate to Timestep
  6,                                      !- Hour 1
  0,                                      !- Minute 1
  1,                                      !- Value Until Time 1
  24,                                     !- Hour 2
  0,                                      !- Minute 2
  0;                                      !- Value Until Time 2

OS:Schedule:Day,
  {22e2e9e5-5285-4e30-b950-600ee258a301}, !- Handle
  Medium Office Lighting Winter Design Day Schedule, !- Name
  ,                                       !- Schedule Type Limits Name
  ,                                       !- Interpolate to Timestep
  24,                                     !- Hour 1
  0,                                      !- Minute 1
  0;                                      !- Value Until Time 1

OS:Schedule:Day,
  {024aab51-07db-4d8f-a76f-0862a61f0294}, !- Handle
  Medium Office Lighting Winter Design Day Schedule 1, !- Name
  {6e8ec9f7-ddc9-47a9-ba04-0bca1f1986c2}, !- Schedule Type Limits Name
  ,                                       !- Interpolate to Timestep
  24,                                     !- Hour 1
  0,                                      !- Minute 1
  0;                                      !- Value Until Time 1

OS:Schedule:Rule,
  {4d0cb1b4-49a2-4a94-ad5a-75b98fd3d3c0}, !- Handle
  Medium Office Lighting Schedule Weekdays Rule, !- Name
  {37ce4c9f-dd55-479d-aa87-b4731b030e36}, !- Schedule Ruleset Name
  1,                                      !- Rule Order
  {c60e2a01-c230-42d9-98a8-f5c5ea8a5926}, !- Day Schedule Name
  ,                                       !- Apply Sunday
  Yes,                                    !- Apply Monday
  Yes,                                    !- Apply Tuesday
  Yes,                                    !- Apply Wednesday
  Yes,                                    !- Apply Thursday
  Yes;                                    !- Apply Friday

OS:Schedule:Day,
  {c60e2a01-c230-42d9-98a8-f5c5ea8a5926}, !- Handle
  Medium Office Lighting Weekdays Schedule, !- Name
  {6e8ec9f7-ddc9-47a9-ba04-0bca1f1986c2}, !- Schedule Type Limits Name
  ,                                       !- Interpolate to Timestep
  5,                                      !- Hour 1
  0,                                      !- Minute 1
  0.05,                                   !- Value Until Time 1
  7,                                      !- Hour 2
  0,                                      !- Minute 2
  0.1,                                    !- Value Until Time 2
  8,                                      !- Hour 3
  0,                                      !- Minute 3
  0.3,                                    !- Value Until Time 3
  17,                                     !- Hour 4
  0,                                      !- Minute 4
  0.9,                                    !- Value Until Time 4
  18,                                     !- Hour 5
  0,                                      !- Minute 5
  0.7,                                    !- Value Until Time 5
  20,                                     !- Hour 6
  0,                                      !- Minute 6
  0.5,                                    !- Value Until Time 6
  22,                                     !- Hour 7
  0,                                      !- Minute 7
  0.3,                                    !- Value Until Time 7
  23,                                     !- Hour 8
  0,                                      !- Minute 8
  0.1,                                    !- Value Until Time 8
  24,                                     !- Hour 9
  0,                                      !- Minute 9
  0.05;                                   !- Value Until Time 9

OS:Schedule:Rule,
  {ccfa28af-5471-4a5e-a5a3-5bab3f2eda2b}, !- Handle
  Medium Office Lighting Schedule Saturday Rule, !- Name
  {37ce4c9f-dd55-479d-aa87-b4731b030e36}, !- Schedule Ruleset Name
  0,                                      !- Rule Order
  {251136cb-f97f-48dd-8424-4cb9240fbbb4}, !- Day Schedule Name
  ,                                       !- Apply Sunday
  ,                                       !- Apply Monday
  ,                                       !- Apply Tuesday
  ,                                       !- Apply Wednesday
  ,                                       !- Apply Thursday
  ,                                       !- Apply Friday
  Yes;                                    !- Apply Saturday

OS:Schedule:Day,
  {251136cb-f97f-48dd-8424-4cb9240fbbb4}, !- Handle
  Medium Office Lighting Saturday Schedule, !- Name
  {6e8ec9f7-ddc9-47a9-ba04-0bca1f1986c2}, !- Schedule Type Limits Name
  ,                                       !- Interpolate to Timestep
  6,                                      !- Hour 1
  0,                                      !- Minute 1
  0.05,                                   !- Value Until Time 1
  8,                                      !- Hour 2
  0,                                      !- Minute 2
  0.1,                                    !- Value Until Time 2
  14,                                     !- Hour 3
  0,                                      !- Minute 3
  0.5,                                    !- Value Until Time 3
  17,                                     !- Hour 4
  0,                                      !- Minute 4
  0.15,                                   !- Value Until Time 4
  24,                                     !- Hour 5
  0,                                      !- Minute 5
  0.05;                                   !- Value Until Time 5

OS:Schedule:Ruleset,
  {702fb4f3-bbae-47fc-98ba-20e450b75a1b}, !- Handle
  Medium Office Electric Equipment Schedule, !- Name
  {6e8ec9f7-ddc9-47a9-ba04-0bca1f1986c2}, !- Schedule Type Limits Name
  {b7597f10-bc15-4313-a368-93cd567ebafc}, !- Default Day Schedule Name
  {4e240081-28fe-4a80-83bd-b638bee7bfed}, !- Summer Design Day Schedule Name
  {3854745e-6440-4e95-8123-717c4acff3a5}; !- Winter Design Day Schedule Name

OS:Schedule:Day,
  {b7597f10-bc15-4313-a368-93cd567ebafc}, !- Handle
  Medium Office Electric Equipment All Other Days Schedule, !- Name
  {6e8ec9f7-ddc9-47a9-ba04-0bca1f1986c2}, !- Schedule Type Limits Name
  ,                                       !- Interpolate to Timestep
  24,                                     !- Hour 1
  0,                                      !- Minute 1
  0.3;                                    !- Value Until Time 1

OS:Schedule:Day,
  {00b5dc5a-5614-49fc-95cc-de76b7c0f200}, !- Handle
  Medium Office Electric Equipment Summer Design Day Schedule, !- Name
  ,                                       !- Schedule Type Limits Name
  ,                                       !- Interpolate to Timestep
  6,                                      !- Hour 1
  0,                                      !- Minute 1
  1,                                      !- Value Until Time 1
  24,                                     !- Hour 2
  0,                                      !- Minute 2
  0;                                      !- Value Until Time 2

OS:Schedule:Day,
  {4e240081-28fe-4a80-83bd-b638bee7bfed}, !- Handle
  Medium Office Electric Equipment Summer Design Day Schedule 1, !- Name
  {6e8ec9f7-ddc9-47a9-ba04-0bca1f1986c2}, !- Schedule Type Limits Name
  ,                                       !- Interpolate to Timestep
  6,                                      !- Hour 1
  0,                                      !- Minute 1
  1,                                      !- Value Until Time 1
  24,                                     !- Hour 2
  0,                                      !- Minute 2
  0;                                      !- Value Until Time 2

OS:Schedule:Day,
  {6cff6fe8-cd4d-4a75-a58c-27b64989bbeb}, !- Handle
  Medium Office Electric Equipment Winter Design Day Schedule, !- Name
  ,                                       !- Schedule Type Limits Name
  ,                                       !- Interpolate to Timestep
  24,                                     !- Hour 1
  0,                                      !- Minute 1
  0;                                      !- Value Until Time 1

OS:Schedule:Day,
  {3854745e-6440-4e95-8123-717c4acff3a5}, !- Handle
  Medium Office Electric Equipment Winter Design Day Schedule 1, !- Name
  {6e8ec9f7-ddc9-47a9-ba04-0bca1f1986c2}, !- Schedule Type Limits Name
  ,                                       !- Interpolate to Timestep
  24,                                     !- Hour 1
  0,                                      !- Minute 1
  0;                                      !- Value Until Time 1

OS:Schedule:Rule,
  {9ce5e6f3-7460-4d82-856a-e1d24551c306}, !- Handle
  Medium Office Electric Equipment Schedule Weekdays Rule, !- Name
  {702fb4f3-bbae-47fc-98ba-20e450b75a1b}, !- Schedule Ruleset Name
  1,                                      !- Rule Order
  {2debdcba-4531-4d33-afd5-195444dfedb6}, !- Day Schedule Name
  ,                                       !- Apply Sunday
  Yes,                                    !- Apply Monday
  Yes,                                    !- Apply Tuesday
  Yes,                                    !- Apply Wednesday
  Yes,                                    !- Apply Thursday
  Yes;                                    !- Apply Friday

OS:Schedule:Day,
  {2debdcba-4531-4d33-afd5-195444dfedb6}, !- Handle
  Medium Office Electric Equipment Weekdays Schedule, !- Name
  {6e8ec9f7-ddc9-47a9-ba04-0bca1f1986c2}, !- Schedule Type Limits Name
  ,                                       !- Interpolate to Timestep
  8,                                      !- Hour 1
  0,                                      !- Minute 1
  0.4,                                    !- Value Until Time 1
  12,                                     !- Hour 2