
OS:Version,
  {dc3c7e51-355a-4f01-83dd-f98d50d65722}, !- Handle
  3.4.0;                                  !- Version Identifier

OS:SimulationControl,
  {88aced53-0d9a-483c-b8ab-2f2724ce00e1}, !- Handle
  Yes,                                    !- Do Zone Sizing Calculation
  Yes,                                    !- Do System Sizing Calculation
  ,                                       !- Do Plant Sizing Calculation
  No,                                     !- Run Simulation for Sizing Periods
  Yes;                                    !- Run Simulation for Weather File Run Periods

OS:Timestep,
  {78a176fb-abeb-43bb-b4e8-c0d5a799b043}, !- Handle
  6;                                      !- Number of Timesteps per Hour

OS:RunPeriod,
  {44b8421f-b913-4335-8087-dbe6bce4b665}, !- Handle
  Run Period 1,                           !- Name
  1,                                      !- Begin Month
  1,                                      !- Begin Day of Month
  12,                                     !- End Month
  31,                                     !- End Day of Month
  No,                                     !- Use Weather File Holidays and Special Days
  No,                                     !- Use Weather File Daylight Saving Period
  No,                                     !- Apply Weekend Holiday Rule
  Yes,                                    !- Use Weather File Rain Indicators
  Yes,                                    !- Use Weather File Snow Indicators
  1;                                      !- Number of Times Runperiod to be Repeated

OS:SurfaceConvectionAlgorithm:Inside,
  {87c76732-1a7f-4107-97ec-d73a5dc39d3c}, !- Handle
  TARP;                                   !- Algorithm

OS:SurfaceConvectionAlgorithm:Outside,
  {d0249795-4680-485a-af87-207174388293}, !- Handle
  DOE-2;                                  !- Algorithm

OS:HeatBalanceAlgorithm,
  {7bf412ec-ebe4-4007-8e5d-9c6c188b855f}, !- Handle
  ConductionTransferFunction,             !- Algorithm
  200;                                    !- Surface Temperature Upper Limit {C}

OS:ZoneAirHeatBalanceAlgorithm,
  {1b3ff841-7b8e-40cd-a2e9-c3a141cb49fd}, !- Handle
  ThirdOrderBackwardDifference;           !- Algorithm

OS:ConvergenceLimits,
  {22d0dc9f-49ba-4af8-b843-138195f28c9b}, !- Handle
  1;                                      !- Minimum System Timestep {minutes}

OS:ShadowCalculation,
  {fb304df4-61b6-4df7-8d7d-cd1cd91f95e8}, !- Handle
  PolygonClipping,                        !- Shading Calculation Method
  ,                                       !- Shading Calculation Update Frequency Method
  20,                                     !- Shading Calculation Update Frequency
  15000,                                  !- Maximum Figures in Shadow Overlap Calculations
  ,                                       !- Polygon Clipping Algorithm
  512,                                    !- Pixel Counting Resolution
  ,                                       !- Sky Diffuse Modeling Algorithm
  No,                                     !- Output External Shading Calculation Results
  No,                                     !- Disable Self-Shading Within Shading Zone Groups
  No;                                     !- Disable Self-Shading From Shading Zone Groups to Other Zones

OS:Site,
  {9dc6c42f-f2b9-4088-9b4d-a7b0109c035c}, !- Handle
  Site 1,                                 !- Name
  41.77,                                  !- Latitude {deg}
  -87.75,                                 !- Longitude {deg}
  -6,                                     !- Time Zone {hr}
  190,                                    !- Elevation {m}
  ;                                       !- Terrain

OS:Site:GroundTemperature:BuildingSurface,
  {82d982dc-a384-422f-be35-ad5a8480c1e5}, !- Handle
  19.527,                                 !- January Ground Temperature {C}
  19.502,                                 !- February Ground Temperature {C}
  19.536,                                 !- March Ground Temperature {C}
  19.598,                                 !- April Ground Temperature {C}
  20.002,                                 !- May Ground Temperature {C}
  21.64,                                  !- June Ground Temperature {C}
  22.225,                                 !- July Ground Temperature {C}
  22.375,                                 !- August Ground Temperature {C}
  21.449,                                 !- September Ground Temperature {C}
  20.121,                                 !- October Ground Temperature {C}
  19.802,                                 !- November Ground Temperature {C}
  19.633;                                 !- December Ground Temperature {C}

OS:Site:GroundTemperature:Deep,
  {f232c65c-f221-467a-83f2-bb39756e088e}, !- Handle
  19.527,                                 !- January Deep Ground Temperature {C}
  19.502,                                 !- February Deep Ground Temperature {C}
  19.536,                                 !- March Deep Ground Temperature {C}
  19.598,                                 !- April Deep Ground Temperature {C}
  20.002,                                 !- May Deep Ground Temperature {C}
  21.64,                                  !- June Deep Ground Temperature {C}
  22.225,                                 !- July Deep Ground Temperature {C}
  22.375,                                 !- August Deep Ground Temperature {C}
  21.449,                                 !- September Deep Ground Temperature {C}
  20.121,                                 !- October Deep Ground Temperature {C}
  19.802,                                 !- November Deep Ground Temperature {C}
  19.633;                                 !- December Deep Ground Temperature {C}

OS:Site:WaterMainsTemperature,
  {ced7821f-aa2f-498a-9899-b11883a0f332}, !- Handle
  Correlation,                            !- Calculation Method
  ,                                       !- Temperature Schedule Name
  9.69,                                   !- Annual Average Outdoor Air Temperature {C}
  28.1;                                   !- Maximum Difference In Monthly Average Outdoor Air Temperatures {deltaC}

OS:SizingPeriod:DesignDay,
  {fd198ce6-7cb8-4ca9-9c1b-39b986bef032}, !- Handle
  Sizing Period Design Day 1,             !- Name
  -20.6,                                  !- Maximum Dry-Bulb Temperature {C}
  0,                                      !- Daily Dry-Bulb Temperature Range {deltaC}
  99063,                                  !- Barometric Pressure {Pa}
  4.9,                                    !- Wind Speed {m/s}
  270,                                    !- Wind Direction {deg}
  0,                                      !- Sky Clearness
  No,                                     !- Rain Indicator
  No,                                     !- Snow Indicator
  21,                                     !- Day of Month
  1,                                      !- Month
  WinterDesignDay,                        !- Day Type
  No,                                     !- Daylight Saving Time Indicator
  WetBulb,                                !- Humidity Condition Type
  ,                                       !- Humidity Condition Day Schedule Name
  -20.6,                                  !- Wetbulb or DewPoint at Maximum Dry-Bulb {C}
  ,                                       !- Humidity Ratio at Maximum Dry-Bulb {kgWater/kgDryAir}
  ,                                       !- Enthalpy at Maximum Dry-Bulb {J/kg}
  ;                                       !- Dry-Bulb Temperature Range Modifier Type

OS:SizingPeriod:DesignDay,
  {0d0fec2e-4d3f-48d1-83a3-de1f9fbb3579}, !- Handle
  Sizing Period Design Day 2,             !- Name
  33.2,                                   !- Maximum Dry-Bulb Temperature {C}
  10.7,                                   !- Daily Dry-Bulb Temperature Range {deltaC}
  99063,                                  !- Barometric Pressure {Pa}
  5.3,                                    !- Wind Speed {m/s}
  230,                                    !- Wind Direction {deg}
  1,                                      !- Sky Clearness
  No,                                     !- Rain Indicator
  No,                                     !- Snow Indicator
  21,                                     !- Day of Month
  7,                                      !- Month
  SummerDesignDay,                        !- Day Type
  No,                                     !- Daylight Saving Time Indicator
  WetBulb,                                !- Humidity Condition Type
  ,                                       !- Humidity Condition Day Schedule Name
  23.8,                                   !- Wetbulb or DewPoint at Maximum Dry-Bulb {C}
  ,                                       !- Humidity Ratio at Maximum Dry-Bulb {kgWater/kgDryAir}
  ,                                       !- Enthalpy at Maximum Dry-Bulb {J/kg}
  ;                                       !- Dry-Bulb Temperature Range Modifier Type

OS:ScheduleTypeLimits,
  {3d4fdff8-08eb-47f1-9126-9c8f93c13e5d}, !- Handle
  Temperature,                            !- Name
  -60,                                    !- Lower Limit Value
  200,                                    !- Upper Limit Value
  CONTINUOUS,                             !- Numeric Type
  Temperature;                            !- Unit Type

OS:DefaultScheduleSet,
  {5f98a81a-4a49-43aa-af29-6dd65e82bf67}, !- Handle
  Default Schedules,                      !- Name
  ,                                       !- Hours of Operation Schedule Name
  {3c00e774-587d-4367-a7bb-472d905c0778}, !- Number of People Schedule Name
  {281dc4d8-ff7e-4963-9bf6-a8c5878abf89}, !- People Activity Level Schedule Name
  {d6d230bd-0250-49e5-b6d8-7714014e44c2}, !- Lighting Schedule Name
  {6c3282f9-27a7-4119-b688-289f809b85cb}, !- Electric Equipment Schedule Name
  {8a21781f-93e7-4776-9d3e-0b87d549a29d}, !- Gas Equipment Schedule Name
  {28480532-9f85-4aef-88dc-3bcbbdb72ae5}, !- Hot Water Equipment Schedule Name
  {4ba90040-41c3-4412-92a0-1caeaec4f230}, !- Infiltration Schedule Name
  ,                                       !- Steam Equipment Schedule Name
  ;                                       !- Other Equipment Schedule Name

OS:Schedule:Ruleset,
  {3c00e774-587d-4367-a7bb-472d905c0778}, !- Handle
  Medium Office Number of People Schedule, !- Name
  {123ed883-e438-4494-8a40-4e8d74c88d92}, !- Schedule Type Limits Name
  {e29c6625-1b9f-4e2a-9cd6-216b9a5067de}, !- Default Day Schedule Name
  {092c91df-04c1-47c4-8b48-f99d10aa0f9f}; !- Summer Design Day Schedule Name

OS:Schedule:Day,
  {e29c6625-1b9f-4e2a-9cd6-216b9a5067de}, !- Handle
  Medium Office Number of People All Other Days Schedule, !- Name
  {123ed883-e438-4494-8a40-4e8d74c88d92}, !- Schedule Type Limits Name
  ,                                       !- Interpolate to Timestep
  24,                                     !- Hour 1
  0,                                      !- Minute 1
  0;                                      !- Value Until Time 1

OS:Schedule:Day,
  {adb7b27a-b2c7-4005-af64-62fc910361f4}, !- Handle
  Medium Office Number of People Summer Design Day Schedule, !- Name
  ,                                       !- Schedule Type Limits Name
  ,                                       !- Interpolate to Timestep
  6,                                      !- Hour 1
  0,                                      !- Minute 1
  0,                                      !- Value Until Time 1
  22,                                     !- Hour 2
  0,                                      !- Minute 2
  1,                                      !- Value Until Time 2
  24,                                     !- Hour 3
  0,                                      !- Minute 3
  0.05;                                   !- Value Until Time 3

OS:Schedule:Day,
  {092c91df-04c1-47c4-8b48-f99d10aa0f9f}, !- Handle
  Medium Office Number of People Summer Design Day Schedule 1, !- Name
  {123ed883-e438-4494-8a40-4e8d74c88d92}, !- Schedule Type Limits Name
  ,                                       !- Interpolate to Timestep
  6,                                      !- Hour 1
  0,                                      !- Minute 1
  0,                                      !- Value Until Time 1
  22,                                     !- Hour 2
  0,                                      !- Minute 2
  1,                                      !- Value Until Time 2
  24,                                     !- Hour 3
  0,                                      !- Minute 3
  0.05;                                   !- Value Until Time 3

OS:Schedule:Rule,
  {2baf77b1-b5f5-474f-9d87-18037e7b0c65}, !- Handle
  Medium Office Number of People Schedule Weekdays Rule, !- Name
  {3c00e774-587d-4367-a7bb-472d905c0778}, !- Schedule Ruleset Name
  1,                                      !- Rule Order
  {8709d395-7fa2-4bc4-a3c2-903f47663483}, !- Day Schedule Name
  ,                                       !- Apply Sunday
  Yes,                                    !- Apply Monday
  Yes,                                    !- Apply Tuesday
  Yes,                                    !- Apply Wednesday
  Yes,                                    !- Apply Thursday
  Yes;                                    !- Apply Friday

OS:Schedule:Day,
  {8709d395-7fa2-4bc4-a3c2-903f47663483}, !- Handle
  Medium Office Number of People Weekdays Schedule, !- Name
  {123ed883-e438-4494-8a40-4e8d74c88d92}, !- Schedule Type Limits Name
  ,                                       !- Interpolate to Timestep
  6,                                      !- Hour 1
  0,                                      !- Minute 1
  0,                                      !- Value Until Time 1
  7,                                      !- Hour 2
  0,                                      !- Minute 2
  0.1,                                    !- Value Until Time 2
  8,                                      !- Hour 3
  0,                                      !- Minute 3
  0.2,                                    !- Value Until Time 3
  12,                                     !- Hour 4
  0,                                      !- Minute 4
  0.95,                                   !- Value Until Time 4
  13,                                     !- Hour 5
  0,                                      !- Minute 5
  0.5,                                    !- Value Until Time 5
  17,                                     !- Hour 6
  0,                                      !- Minute 6
  0.95,                                   !- Value Until Time 6
  18,                                     !- Hour 7
  0,                                      !- Minute 7
  0.7,                                    !- Value Until Time 7
  20,                                     !- Hour 8
  0,                                      !- Minute 8
  0.4,                                    !- Value Until Time 8
  22,                                     !- Hour 9
  0,                                      !- Minute 9
  0.1,                                    !- Value Until Time 9
  24,                                     !- Hour 10
  0,                                      !- Minute 10
  0.05;                                   !- Value Until Time 10

OS:Schedule:Rule,
  {98a13129-b3c9-4bf7-b47e-4896176b66eb}, !- Handle
  Medium Office Number of People Schedule Saturday Rule, !- Name
  {3c00e774-587d-4367-a7bb-472d905c0778}, !- Schedule Ruleset Name
  0,                                      !- Rule Order
  {1ae28d1e-9b64-4ef2-b812-1201bca5cf42}, !- Day Schedule Name
  ,                                       !- Apply Sunday
  ,                                       !- Apply Monday
  ,                                       !- Apply Tuesday
  ,                                       !- Apply Wednesday
  ,                                       !- Apply Thursday
  ,                                       !- Apply Friday
  Yes;                                    !- Apply Saturday

OS:Schedule:Day,
  {1ae28d1e-9b64-4ef2-b812-1201bca5cf42}, !- Handle
  Medium Office Number of People Saturday Schedule, !- Name
  {123ed883-e438-4494-8a40-4e8d74c88d92}, !- Schedule Type Limits Name
  ,                                       !- Interpolate to Timestep
  6,                                      !- Hour 1
  0,                                      !- Minute 1
  0,                                      !- Value Until Time 1
  8,                                      !- Hour 2
  0,                                      !- Minute 2
  0.1,                                    !- Value Until Time 2
  14,                                     !- Hour 3
  0,                                      !- Minute 3
  0.5,                                    !- Value Until Time 3
  17,                                     !- Hour 4
  0,                                      !- Minute 4
  0.1,                                    !- Value Until Time 4
  24,                                     !- Hour 5
  0,                                      !- Minute 5
  0;                                      !- Value Until Time 5

OS:ScheduleTypeLimits,
  {123ed883-e438-4494-8a40-4e8d74c88d92}, !- Handle
  Fractional,                             !- Name
  0,                                      !- Lower Limit Value
  1,                                      !- Upper Limit Value
  Continuous;                             !- Numeric Type

OS:Schedule:Ruleset,
  {281dc4d8-ff7e-4963-9bf6-a8c5878abf89}, !- Handle
  Medium Office People Activity Level Schedule, !- Name
  {d11afdd9-b318-4d98-add2-cc4e592b55f6}, !- Schedule Type Limits Name
  {6d47a140-68e6-4f25-b771-f35b766e241b}; !- Default Day Schedule Name

OS:Schedule:Day,
  {6d47a140-68e6-4f25-b771-f35b766e241b}, !- Handle
  Medium Office People Activity Level All Days Schedule, !- Name
  {d11afdd9-b318-4d98-add2-cc4e592b55f6}, !- Schedule Type Limits Name
  ,                                       !- Interpolate to Timestep
  24,                                     !- Hour 1
  0,                                      !- Minute 1
  120;                                    !- Value Until Time 1

OS:ScheduleTypeLimits,
  {d11afdd9-b318-4d98-add2-cc4e592b55f6}, !- Handle
  ActivityLevel,                          !- Name
  0,                                      !- Lower Limit Value
  ,                                       !- Upper Limit Value
  Continuous,                             !- Numeric Type
  ActivityLevel;                          !- Unit Type

OS:Schedule:Ruleset,
  {d6d230bd-0250-49e5-b6d8-7714014e44c2}, !- Handle
  Medium Office Lighting Schedule,        !- Name
  {123ed883-e438-4494-8a40-4e8d74c88d92}, !- Schedule Type Limits Name
  {b110c8e8-33a5-4dbe-9736-c3522c532028}, !- Default Day Schedule Name
  {a5d3e6fa-1ea3-4b4a-a259-6b65e6fac3fe}, !- Summer Design Day Schedule Name
  {32ae5291-e826-4aa7-b153-300e519c24a0}; !- Winter Design Day Schedule Name

OS:Schedule:Day,
  {b110c8e8-33a5-4dbe-9736-c3522c532028}, !- Handle
  Medium Office Lighting All Other Days Schedule, !- Name
  {123ed883-e438-4494-8a40-4e8d74c88d92}, !- Schedule Type Limits Name
  ,                                       !- Interpolate to Timestep
  24,                                     !- Hour 1
  0,                                      !- Minute 1
  0.05;                                   !- Value Until Time 1

OS:Schedule:Day,
  {8c2ea33b-f50e-4238-8e21-e85359e6b06f}, !- Handle
  Medium Office Lighting Summer Design Day Schedule, !- Name
  ,                                       !- Schedule Type Limits Name
  ,                                       !- Interpolate to Timestep
  6,                                      !- Hour 1
  0,                                      !- Minute 1
  1,                                      !- Value Until Time 1
  24,                                     !- Hour 2
  0,                                      !- Minute 2
  0;                                      !- Value Until Time 2

OS:Schedule:Day,
  {a5d3e6fa-1ea3-4b4a-a259-6b65e6fac3fe}, !- Handle
  Medium Office Lighting Summer Design Day Schedule 1, !- Name
  {123ed883-e438-4494-8a40-4e8d74c88d92}, !- Schedule Type Limits Name
  ,                                       !- Interpolate to Timestep
  6,                                      !- Hour 1
  0,                                      !- Minute 1
  1,                                      !- Value Until Time 1
  24,                                     !- Hour 2
  0,                                      !- Minute 2
  0;                                      !- Value Until Time 2

OS:Schedule:Day,
  {d733ac75-8687-4386-b3e2-f967d5b754ec}, !- Handle
  Medium Office Lighting Winter Design Day Schedule, !- Name
  ,                                       !- Schedule Type Limits Name
  ,                                       !- Interpolate to Timestep
  24,                                     !- Hour 1
  0,                                      !- Minute 1
  0;                                      !- Value Until Time 1

OS:Schedule:Day,
  {32ae5291-e826-4aa7-b153-300e519c24a0}, !- Handle
  Medium Office Lighting Winter Design Day Schedule 1, !- Name
  {123ed883-e438-4494-8a40-4e8d74c88d92}, !- Schedule Type Limits Name
  ,                                       !- Interpolate to Timestep
  24,                                     !- Hour 1
  0,                                      !- Minute 1
  0;                                      !- Value Until Time 1

OS:Schedule:Rule,
  {77637aca-3421-4888-8a68-8dab73665a97}, !- Handle
  Medium Office Lighting Schedule Weekdays Rule, !- Name
  {d6d230bd-0250-49e5-b6d8-7714014e44c2}, !- Schedule Ruleset Name
  1,                                      !- Rule Order
  {506624be-c288-44e6-b46b-eb3c407cc6c2}, !- Day Schedule Name
  ,                                       !- Apply Sunday
  Yes,                                    !- Apply Monday
  Yes,                                    !- Apply Tuesday
  Yes,                                    !- Apply Wednesday
  Yes,                                    !- Apply Thursday
  Yes;                                    !- Apply Friday

OS:Schedule:Day,
  {506624be-c288-44e6-b46b-eb3c407cc6c2}, !- Handle
  Medium Office Lighting Weekdays Schedule, !- Name
  {123ed883-e438-4494-8a40-4e8d74c88d92}, !- Schedule Type Limits Name
  ,                                       !- Interpolate to Timestep
  5,                                      !- Hour 1
  0,                                      !- Minute 1
  0.05,                                   !- Value Until Time 1
  7,                                      !- Hour 2
  0,                                      !- Minute 2
  0.1,                                    !- Value Until Time 2
  8,                                      !- Hour 3
  0,                                      !- Minute 3
  0.3,                                    !- Value Until Time 3
  17,                                     !- Hour 4
  0,                                      !- Minute 4
  0.9,                                    !- Value Until Time 4
  18,                                     !- Hour 5
  0,                                      !- Minute 5
  0.7,                                    !- Value Until Time 5
  20,                                     !- Hour 6
  0,                                      !- Minute 6
  0.5,                                    !- Value Until Time 6
  22,                                     !- Hour 7
  0,                                      !- Minute 7
  0.3,                                    !- Value Until Time 7
  23,                                     !- Hour 8
  0,                                      !- Minute 8
  0.1,                                    !- Value Until Time 8
  24,                                     !- Hour 9
  0,                                      !- Minute 9
  0.05;                                   !- Value Until Time 9

OS:Schedule:Rule,
  {c63acde8-7ca9-4bfa-93bf-bda0bf2bb8ef}, !- Handle
  Medium Office Lighting Schedule Saturday Rule, !- Name
  {d6d230bd-0250-49e5-b6d8-7714014e44c2}, !- Schedule Ruleset Name
  0,                                      !- Rule Order
  {bd422255-0dd2-4722-838a-f18321779fba}, !- Day Schedule Name
  ,                                       !- Apply Sunday
  ,                                       !- Apply Monday
  ,                                       !- Apply Tuesday
  ,                                       !- Apply Wednesday
  ,                                       !- Apply Thursday
  ,                                       !- Apply Friday
  Yes;                                    !- Apply Saturday

OS:Schedule:Day,
  {bd422255-0dd2-4722-838a-f18321779fba}, !- Handle
  Medium Office Lighting Saturday Schedule, !- Name
  {123ed883-e438-4494-8a40-4e8d74c88d92}, !- Schedule Type Limits Name
  ,                                       !- Interpolate to Timestep
  6,                                      !- Hour 1
  0,                                      !- Minute 1
  0.05,                                   !- Value Until Time 1
  8,                                      !- Hour 2
  0,                                      !- Minute 2
  0.1,                                    !- Value Until Time 2
  14,                                     !- Hour 3
  0,                                      !- Minute 3
  0.5,                                    !- Value Until Time 3
  17,                                     !- Hour 4
  0,                                      !- Minute 4
  0.15,                                   !- Value Until Time 4
  24,                                     !- Hour 5
  0,                                      !- Minute 5
  0.05;                                   !- Value Until Time 5

OS:Schedule:Ruleset,
  {6c3282f9-27a7-4119-b688-289f809b85cb}, !- Handle
  Medium Office Electric Equipment Schedule, !- Name
  {123ed883-e438-4494-8a40-4e8d74c88d92}, !- Schedule Type Limits Name
  {700cb3d4-2c68-4998-b4bb-a069589f830f}, !- Default Day Schedule Name
  {dc6dc8d4-6880-4672-8aca-7f1a0336d2ac}, !- Summer Design Day Schedule Name
  {5b091f64-f154-4016-a1eb-ce407a3814f7}; !- Winter Design Day Schedule Name

OS:Schedule:Day,
  {700cb3d4-2c68-4998-b4bb-a069589f830f}, !- Handle
  Medium Office Electric Equipment All Other Days Schedule, !- Name
  {123ed883-e438-4494-8a40-4e8d74c88d92}, !- Schedule Type Limits Name
  ,                                       !- Interpolate to Timestep
  24,                                     !- Hour 1
  0,                                      !- Minute 1
  0.3;                                    !- Value Until Time 1

OS:Schedule:Day,
  {57578ad9-9e13-463e-bfc3-8f2528bd97d2}, !- Handle
  Medium Office Electric Equipment Summer Design Day Schedule, !- Name
  ,                                       !- Schedule Type Limits Name
  ,                                       !- Interpolate to Timestep
  6,                                      !- Hour 1
  0,                                      !- Minute 1
  1,                                      !- Value Until Time 1
  24,                                     !- Hour 2
  0,                                      !- Minute 2
  0;                                      !- Value Until Time 2

OS:Schedule:Day,
  {dc6dc8d4-6880-4672-8aca-7f1a0336d2ac}, !- Handle
  Medium Office Electric Equipment Summer Design Day Schedule 1, !- Name
  {123ed883-e438-4494-8a40-4e8d74c88d92}, !- Schedule Type Limits Name
  ,                                       !- Interpolate to Timestep
  6,                                      !- Hour 1
  0,                                      !- Minute 1
  1,                                      !- Value Until Time 1
  24,                                     !- Hour 2
  0,                                      !- Minute 2
  0;                                      !- Value Until Time 2

OS:Schedule:Day,
  {06a29f2f-cf43-4b53-a1bf-7bc2e8e6460c}, !- Handle
  Medium Office Electric Equipment Winter Design Day Schedule, !- Name
  ,                                       !- Schedule Type Limits Name
  ,                                       !- Interpolate to Timestep
  24,                                     !- Hour 1
  0,                                      !- Minute 1
  0;                                      !- Value Until Time 1

OS:Schedule:Day,
  {5b091f64-f154-4016-a1eb-ce407a3814f7}, !- Handle
  Medium Office Electric Equipment Winter Design Day Schedule 1, !- Name
  {123ed883-e438-4494-8a40-4e8d74c88d92}, !- Schedule Type Limits Name
  ,                                       !- Interpolate to Timestep
  24,                                     !- Hour 1
  0,                                      !- Minute 1
  0;                                      !- Value Until Time 1

OS:Schedule:Rule,
  {a6ffee9b-1c30-4283-b34a-2f1f69fb25f7}, !- Handle
  Medium Office Electric Equipment Schedule Weekdays Rule, !- Name
  {6c3282f9-27a7-4119-b688-289f809b85cb}, !- Schedule Ruleset Name
  1,                                      !- Rule Order
  {941401d2-df87-4384-9fd9-5c393eb8e0e3}, !- Day Schedule Name
  ,                                       !- Apply Sunday
  Yes,                                    !- Apply Monday
  Yes,                                    !- Apply Tuesday
  Yes,                                    !- Apply Wednesday
  Yes,                                    !- Apply Thursday
  Yes;                                    !- Apply Friday

OS:Schedule:Day,
  {941401d2-df87-4384-9fd9-5c393eb8e0e3}, !- Handle
  Medium Office Electric Equipment Weekdays Schedule, !- Name
  {123ed883-e438-4494-8a40-4e8d74c88d92}, !- Schedule Type Limits Name
  ,                                       !- Interpolate to Timestep
  8,                                      !- Hour 1
  0,                                      !- Minute 1
  0.4,                                    !- Value Until Time 1
  12,                                     !- Hour 2