
OS:Version,
  {d1c08db0-1ea5-4afb-a530-a067e3ab6ce9}, !- Handle
  3.4.0;                                  !- Version Identifier

OS:SimulationControl,
  {f2469123-6d85-4c1f-a644-d28fe914eda6}, !- Handle
  Yes,                                    !- Do Zone Sizing Calculation
  Yes,                                    !- Do System Sizing Calculation
  ,                                       !- Do Plant Sizing Calculation
  No,                                     !- Run Simulation for Sizing Periods
  Yes;                                    !- Run Simulation for Weather File Run Periods

OS:Timestep,
  {793b815f-1a1c-463a-b5c0-8c9cbc968700}, !- Handle
  6;                                      !- Number of Timesteps per Hour

OS:RunPeriod,
  {4aaf1371-9ea4-4009-8e8f-1825b2cd4d1c}, !- Handle
  Run Period 1,                           !- Name
  1,                                      !- Begin Month
  1,                                      !- Begin Day of Month
  12,                                     !- End Month
  31,                                     !- End Day of Month
  No,                                     !- Use Weather File Holidays and Special Days
  No,                                     !- Use Weather File Daylight Saving Period
  No,                                     !- Apply Weekend Holiday Rule
  Yes,                                    !- Use Weather File Rain Indicators
  Yes,                                    !- Use Weather File Snow Indicators
  1;                                      !- Number of Times Runperiod to be Repeated

OS:SurfaceConvectionAlgorithm:Inside,
  {3317174d-7811-4025-8475-57713c49a13a}, !- Handle
  TARP;                                   !- Algorithm

OS:SurfaceConvectionAlgorithm:Outside,
  {7cfe6088-6201-44f2-91c1-05a67f206025}, !- Handle
  DOE-2;                                  !- Algorithm

OS:HeatBalanceAlgorithm,
  {0d5f9196-6509-421d-993e-ae05f6098dad}, !- Handle
  ConductionTransferFunction,             !- Algorithm
  200;                                    !- Surface Temperature Upper Limit {C}

OS:ZoneAirHeatBalanceAlgorithm,
  {596b4f71-ec6a-47bf-80ba-651dfd9aea4c}, !- Handle
  ThirdOrderBackwardDifference;           !- Algorithm

OS:ConvergenceLimits,
  {8fffa940-a060-47ee-b538-4ba15e14c035}, !- Handle
  1;                                      !- Minimum System Timestep {minutes}

OS:ShadowCalculation,
  {61015f85-9b84-4c1f-93b6-4e79e5c5bce0}, !- Handle
  PolygonClipping,                        !- Shading Calculation Method
  ,                                       !- Shading Calculation Update Frequency Method
  20,                                     !- Shading Calculation Update Frequency
  15000,                                  !- Maximum Figures in Shadow Overlap Calculations
  ,                                       !- Polygon Clipping Algorithm
  512,                                    !- Pixel Counting Resolution
  ,                                       !- Sky Diffuse Modeling Algorithm
  No,                                     !- Output External Shading Calculation Results
  No,                                     !- Disable Self-Shading Within Shading Zone Groups
  No;                                     !- Disable Self-Shading From Shading Zone Groups to Other Zones

OS:Site,
  {72eccd04-81df-48b8-b694-f545d10b7003}, !- Handle
  Site 1,                                 !- Name
  41.77,                                  !- Latitude {deg}
  -87.75,                                 !- Longitude {deg}
  -6,                                     !- Time Zone {hr}
  190,                                    !- Elevation {m}
  ;                                       !- Terrain

OS:Site:GroundTemperature:BuildingSurface,
  {65164ce2-f711-49ca-983b-6d6c9edcb1f5}, !- Handle
  19.527,                                 !- January Ground Temperature {C}
  19.502,                                 !- February Ground Temperature {C}
  19.536,                                 !- March Ground Temperature {C}
  19.598,                                 !- April Ground Temperature {C}
  20.002,                                 !- May Ground Temperature {C}
  21.64,                                  !- June Ground Temperature {C}
  22.225,                                 !- July Ground Temperature {C}
  22.375,                                 !- August Ground Temperature {C}
  21.449,                                 !- September Ground Temperature {C}
  20.121,                                 !- October Ground Temperature {C}
  19.802,                                 !- November Ground Temperature {C}
  19.633;                                 !- December Ground Temperature {C}

OS:Site:GroundTemperature:Deep,
  {fea0203b-368e-4351-82ed-1543c37440d1}, !- Handle
  19.527,                                 !- January Deep Ground Temperature {C}
  19.502,                                 !- February Deep Ground Temperature {C}
  19.536,                                 !- March Deep Ground Temperature {C}
  19.598,                                 !- April Deep Ground Temperature {C}
  20.002,                                 !- May Deep Ground Temperature {C}
  21.64,                                  !- June Deep Ground Temperature {C}
  22.225,                                 !- July Deep Ground Temperature {C}
  22.375,                                 !- August Deep Ground Temperature {C}
  21.449,                                 !- September Deep Ground Temperature {C}
  20.121,                                 !- October Deep Ground Temperature {C}
  19.802,                                 !- November Deep Ground Temperature {C}
  19.633;                                 !- December Deep Ground Temperature {C}

OS:Site:WaterMainsTemperature,
  {afabbd21-9e32-4683-9c7c-830806d27ed5}, !- Handle
  Correlation,                            !- Calculation Method
  ,                                       !- Temperature Schedule Name
  9.69,                                   !- Annual Average Outdoor Air Temperature {C}
  28.1;                                   !- Maximum Difference In Monthly Average Outdoor Air Temperatures {deltaC}

OS:SizingPeriod:DesignDay,
  {64b53e13-9daa-4239-ba63-397a9440c1f0}, !- Handle
  Sizing Period Design Day 1,             !- Name
  -20.6,                                  !- Maximum Dry-Bulb Temperature {C}
  0,                                      !- Daily Dry-Bulb Temperature Range {deltaC}
  99063,                                  !- Barometric Pressure {Pa}
  4.9,                                    !- Wind Speed {m/s}
  270,                                    !- Wind Direction {deg}
  0,                                      !- Sky Clearness
  No,                                     !- Rain Indicator
  No,                                     !- Snow Indicator
  21,                                     !- Day of Month
  1,                                      !- Month
  WinterDesignDay,                        !- Day Type
  No,                                     !- Daylight Saving Time Indicator
  WetBulb,                                !- Humidity Condition Type
  ,                                       !- Humidity Condition Day Schedule Name
  -20.6,                                  !- Wetbulb or DewPoint at Maximum Dry-Bulb {C}
  ,                                       !- Humidity Ratio at Maximum Dry-Bulb {kgWater/kgDryAir}
  ,                                       !- Enthalpy at Maximum Dry-Bulb {J/kg}
  ;                                       !- Dry-Bulb Temperature Range Modifier Type

OS:SizingPeriod:DesignDay,
  {dcf76563-824c-4e40-992e-ff89768f28fb}, !- Handle
  Sizing Period Design Day 2,             !- Name
  33.2,                                   !- Maximum Dry-Bulb Temperature {C}
  10.7,                                   !- Daily Dry-Bulb Temperature Range {deltaC}
  99063,                                  !- Barometric Pressure {Pa}
  5.3,                                    !- Wind Speed {m/s}
  230,                                    !- Wind Direction {deg}
  1,                                      !- Sky Clearness
  No,                                     !- Rain Indicator
  No,                                     !- Snow Indicator
  21,                                     !- Day of Month
  7,                                      !- Month
  SummerDesignDay,                        !- Day Type
  No,                                     !- Daylight Saving Time Indicator
  WetBulb,                                !- Humidity Condition Type
  ,                                       !- Humidity Condition Day Schedule Name
  23.8,                                   !- Wetbulb or DewPoint at Maximum Dry-Bulb {C}
  ,                                       !- Humidity Ratio at Maximum Dry-Bulb {kgWater/kgDryAir}
  ,                                       !- Enthalpy at Maximum Dry-Bulb {J/kg}
  ;                                       !- Dry-Bulb Temperature Range Modifier Type

OS:ScheduleTypeLimits,
  {96f1ee6d-27e7-47a6-82e1-3862c37bae9e}, !- Handle
  Temperature,                            !- Name
  -60,                                    !- Lower Limit Value
  200,                                    !- Upper Limit Value
  CONTINUOUS,                             !- Numeric Type
  Temperature;                            !- Unit Type

OS:DefaultScheduleSet,
  {1de10ec7-3a29-4add-bf23-3f96983a8658}, !- Handle
  Default Schedules,                      !- Name
  ,                                       !- Hours of Operation Schedule Name
  {b367c89a-2b2a-4886-aff8-976366fa4863}, !- Number of People Schedule Name
  {0d95d256-9707-4bfa-bdfa-255a5f11cbff}, !- People Activity Level Schedule Name
  {2abbd250-98ce-47e4-9208-6b865cb4bf7f}, !- Lighting Schedule Name
  {d5806fd7-1bc0-434f-8a18-25c0ce5a19e4}, !- Electric Equipment Schedule Name
  {dd92f7d1-1f6a-4add-b2bf-62338aa6ede5}, !- Gas Equipment Schedule Name
  {74886d63-058c-4f7a-8a8f-4765b637dba2}, !- Hot Water Equipment Schedule Name
  {5634a253-cb50-4e34-9649-6c70ba20a044}, !- Infiltration Schedule Name
  ,                                       !- Steam Equipment Schedule Name
  ;                                       !- Other Equipment Schedule Name

OS:Schedule:Ruleset,
  {b367c89a-2b2a-4886-aff8-976366fa4863}, !- Handle
  Medium Office Number of People Schedule, !- Name
  {bced09af-3f85-416b-90b0-80ac024b6c13}, !- Schedule Type Limits Name
  {8a2e4afa-458c-420c-a15a-29aab49f18a7}, !- Default Day Schedule Name
  {819470be-121d-4c18-90e2-ab42666688b0}; !- Summer Design Day Schedule Name

OS:Schedule:Day,
  {8a2e4afa-458c-420c-a15a-29aab49f18a7}, !- Handle
  Medium Office Number of People All Other Days Schedule, !- Name
  {bced09af-3f85-416b-90b0-80ac024b6c13}, !- Schedule Type Limits Name
  ,                                       !- Interpolate to Timestep
  24,                                     !- Hour 1
  0,                                      !- Minute 1
  0;                                      !- Value Until Time 1

OS:Schedule:Day,
  {55534101-c2e9-4e7e-ad80-974c450844af}, !- Handle
  Medium Office Number of People Summer Design Day Schedule, !- Name
  ,                                       !- Schedule Type Limits Name
  ,                                       !- Interpolate to Timestep
  6,                                      !- Hour 1
  0,                                      !- Minute 1
  0,                                      !- Value Until Time 1
  22,                                     !- Hour 2
  0,                                      !- Minute 2
  1,                                      !- Value Until Time 2
  24,                                     !- Hour 3
  0,                                      !- Minute 3
  0.05;                                   !- Value Until Time 3

OS:Schedule:Day,
  {819470be-121d-4c18-90e2-ab42666688b0}, !- Handle
  Medium Office Number of People Summer Design Day Schedule 1, !- Name
  {bced09af-3f85-416b-90b0-80ac024b6c13}, !- Schedule Type Limits Name
  ,                                       !- Interpolate to Timestep
  6,                                      !- Hour 1
  0,                                      !- Minute 1
  0,                                      !- Value Until Time 1
  22,                                     !- Hour 2
  0,                                      !- Minute 2
  1,                                      !- Value Until Time 2
  24,                                     !- Hour 3
  0,                                      !- Minute 3
  0.05;                                   !- Value Until Time 3

OS:Schedule:Rule,
  {694f1594-2f2b-4781-8de8-f0fe2551edcc}, !- Handle
  Medium Office Number of People Schedule Weekdays Rule, !- Name
  {b367c89a-2b2a-4886-aff8-976366fa4863}, !- Schedule Ruleset Name
  1,                                      !- Rule Order
  {f7cbb009-cf70-4189-9f68-4c80817b164e}, !- Day Schedule Name
  ,                                       !- Apply Sunday
  Yes,                                    !- Apply Monday
  Yes,                                    !- Apply Tuesday
  Yes,                                    !- Apply Wednesday
  Yes,                                    !- Apply Thursday
  Yes;                                    !- Apply Friday

OS:Schedule:Day,
  {f7cbb009-cf70-4189-9f68-4c80817b164e}, !- Handle
  Medium Office Number of People Weekdays Schedule, !- Name
  {bced09af-3f85-416b-90b0-80ac024b6c13}, !- Schedule Type Limits Name
  ,                                       !- Interpolate to Timestep
  6,                                      !- Hour 1
  0,                                      !- Minute 1
  0,                                      !- Value Until Time 1
  7,                                      !- Hour 2
  0,                                      !- Minute 2
  0.1,                                    !- Value Until Time 2
  8,                                      !- Hour 3
  0,                                      !- Minute 3
  0.2,                                    !- Value Until Time 3
  12,                                     !- Hour 4
  0,                                      !- Minute 4
  0.95,                                   !- Value Until Time 4
  13,                                     !- Hour 5
  0,                                      !- Minute 5
  0.5,                                    !- Value Until Time 5
  17,                                     !- Hour 6
  0,                                      !- Minute 6
  0.95,                                   !- Value Until Time 6
  18,                                     !- Hour 7
  0,                                      !- Minute 7
  0.7,                                    !- Value Until Time 7
  20,                                     !- Hour 8
  0,                                      !- Minute 8
  0.4,                                    !- Value Until Time 8
  22,                                     !- Hour 9
  0,                                      !- Minute 9
  0.1,                                    !- Value Until Time 9
  24,                                     !- Hour 10
  0,                                      !- Minute 10
  0.05;                                   !- Value Until Time 10

OS:Schedule:Rule,
  {70482fca-67a6-43ec-86fc-d4a19fe3bfa9}, !- Handle
  Medium Office Number of People Schedule Saturday Rule, !- Name
  {b367c89a-2b2a-4886-aff8-976366fa4863}, !- Schedule Ruleset Name
  0,                                      !- Rule Order
  {e19c041c-41ca-4308-9886-125b54428e8b}, !- Day Schedule Name
  ,                                       !- Apply Sunday
  ,                                       !- Apply Monday
  ,                                       !- Apply Tuesday
  ,                                       !- Apply Wednesday
  ,                                       !- Apply Thursday
  ,                                       !- Apply Friday
  Yes;                                    !- Apply Saturday

OS:Schedule:Day,
  {e19c041c-41ca-4308-9886-125b54428e8b}, !- Handle
  Medium Office Number of People Saturday Schedule, !- Name
  {bced09af-3f85-416b-90b0-80ac024b6c13}, !- Schedule Type Limits Name
  ,                                       !- Interpolate to Timestep
  6,                                      !- Hour 1
  0,                                      !- Minute 1
  0,                                      !- Value Until Time 1
  8,                                      !- Hour 2
  0,                                      !- Minute 2
  0.1,                                    !- Value Until Time 2
  14,                                     !- Hour 3
  0,                                      !- Minute 3
  0.5,                                    !- Value Until Time 3
  17,                                     !- Hour 4
  0,                                      !- Minute 4
  0.1,                                    !- Value Until Time 4
  24,                                     !- Hour 5
  0,                                      !- Minute 5
  0;                                      !- Value Until Time 5

OS:ScheduleTypeLimits,
  {bced09af-3f85-416b-90b0-80ac024b6c13}, !- Handle
  Fractional,                             !- Name
  0,                                      !- Lower Limit Value
  1,                                      !- Upper Limit Value
  Continuous;                             !- Numeric Type

OS:Schedule:Ruleset,
  {0d95d256-9707-4bfa-bdfa-255a5f11cbff}, !- Handle
  Medium Office People Activity Level Schedule, !- Name
  {8da2f848-eea5-4bd1-843f-39fd842fbdf3}, !- Schedule Type Limits Name
  {c2d44600-5952-4f2b-9d0f-7dad77a92c2b}; !- Default Day Schedule Name

OS:Schedule:Day,
  {c2d44600-5952-4f2b-9d0f-7dad77a92c2b}, !- Handle
  Medium Office People Activity Level All Days Schedule, !- Name
  {8da2f848-eea5-4bd1-843f-39fd842fbdf3}, !- Schedule Type Limits Name
  ,                                       !- Interpolate to Timestep
  24,                                     !- Hour 1
  0,                                      !- Minute 1
  120;                                    !- Value Until Time 1

OS:ScheduleTypeLimits,
  {8da2f848-eea5-4bd1-843f-39fd842fbdf3}, !- Handle
  ActivityLevel,                          !- Name
  0,                                      !- Lower Limit Value
  ,                                       !- Upper Limit Value
  Continuous,                             !- Numeric Type
  ActivityLevel;                          !- Unit Type

OS:Schedule:Ruleset,
  {2abbd250-98ce-47e4-9208-6b865cb4bf7f}, !- Handle
  Medium Office Lighting Schedule,        !- Name
  {bced09af-3f85-416b-90b0-80ac024b6c13}, !- Schedule Type Limits Name
  {53cf0407-2e72-4942-9358-a1e7b5d3d81d}, !- Default Day Schedule Name
  {81b07c4e-e0ba-498d-a2df-59fc4e139a27}, !- Summer Design Day Schedule Name
  {b1517957-be51-4cc4-ab1f-37cc69bc114c}; !- Winter Design Day Schedule Name

OS:Schedule:Day,
  {53cf0407-2e72-4942-9358-a1e7b5d3d81d}, !- Handle
  Medium Office Lighting All Other Days Schedule, !- Name
  {bced09af-3f85-416b-90b0-80ac024b6c13}, !- Schedule Type Limits Name
  ,                                       !- Interpolate to Timestep
  24,                                     !- Hour 1
  0,                                      !- Minute 1
  0.05;                                   !- Value Until Time 1

OS:Schedule:Day,
  {3476ed52-7ddc-470c-920d-c41a4407d4ab}, !- Handle
  Medium Office Lighting Summer Design Day Schedule, !- Name
  ,                                       !- Schedule Type Limits Name
  ,                                       !- Interpolate to Timestep
  6,                                      !- Hour 1
  0,                                      !- Minute 1
  1,                                      !- Value Until Time 1
  24,                                     !- Hour 2
  0,                                      !- Minute 2
  0;                                      !- Value Until Time 2

OS:Schedule:Day,
  {81b07c4e-e0ba-498d-a2df-59fc4e139a27}, !- Handle
  Medium Office Lighting Summer Design Day Schedule 1, !- Name
  {bced09af-3f85-416b-90b0-80ac024b6c13}, !- Schedule Type Limits Name
  ,                                       !- Interpolate to Timestep
  6,                                      !- Hour 1
  0,                                      !- Minute 1
  1,                                      !- Value Until Time 1
  24,                                     !- Hour 2
  0,                                      !- Minute 2
  0;                                      !- Value Until Time 2

OS:Schedule:Day,
  {b6f57c35-eaf9-47f6-b93c-65d6b4bbfa35}, !- Handle
  Medium Office Lighting Winter Design Day Schedule, !- Name
  ,                                       !- Schedule Type Limits Name
  ,                                       !- Interpolate to Timestep
  24,                                     !- Hour 1
  0,                                      !- Minute 1
  0;                                      !- Value Until Time 1

OS:Schedule:Day,
  {b1517957-be51-4cc4-ab1f-37cc69bc114c}, !- Handle
  Medium Office Lighting Winter Design Day Schedule 1, !- Name
  {bced09af-3f85-416b-90b0-80ac024b6c13}, !- Schedule Type Limits Name
  ,                                       !- Interpolate to Timestep
  24,                                     !- Hour 1
  0,                                      !- Minute 1
  0;                                      !- Value Until Time 1

OS:Schedule:Rule,
  {721587a8-d791-4802-a17e-7c1e941568a4}, !- Handle
  Medium Office Lighting Schedule Weekdays Rule, !- Name
  {2abbd250-98ce-47e4-9208-6b865cb4bf7f}, !- Schedule Ruleset Name
  1,                                      !- Rule Order
  {8f16b2db-9ef9-47ae-92ca-3bc25e8e0c32}, !- Day Schedule Name
  ,                                       !- Apply Sunday
  Yes,                                    !- Apply Monday
  Yes,                                    !- Apply Tuesday
  Yes,                                    !- Apply Wednesday
  Yes,                                    !- Apply Thursday
  Yes;                                    !- Apply Friday

OS:Schedule:Day,
  {8f16b2db-9ef9-47ae-92ca-3bc25e8e0c32}, !- Handle
  Medium Office Lighting Weekdays Schedule, !- Name
  {bced09af-3f85-416b-90b0-80ac024b6c13}, !- Schedule Type Limits Name
  ,                                       !- Interpolate to Timestep
  5,                                      !- Hour 1
  0,                                      !- Minute 1
  0.05,                                   !- Value Until Time 1
  7,                                      !- Hour 2
  0,                                      !- Minute 2
  0.1,                                    !- Value Until Time 2
  8,                                      !- Hour 3
  0,                                      !- Minute 3
  0.3,                                    !- Value Until Time 3
  17,                                     !- Hour 4
  0,                                      !- Minute 4
  0.9,                                    !- Value Until Time 4
  18,                                     !- Hour 5
  0,                                      !- Minute 5
  0.7,                                    !- Value Until Time 5
  20,                                     !- Hour 6
  0,                                      !- Minute 6
  0.5,                                    !- Value Until Time 6
  22,                                     !- Hour 7
  0,                                      !- Minute 7
  0.3,                                    !- Value Until Time 7
  23,                                     !- Hour 8
  0,                                      !- Minute 8
  0.1,                                    !- Value Until Time 8
  24,                                     !- Hour 9
  0,                                      !- Minute 9
  0.05;                                   !- Value Until Time 9

OS:Schedule:Rule,
  {1125fd04-720d-49ba-954a-8241bb3cdb9b}, !- Handle
  Medium Office Lighting Schedule Saturday Rule, !- Name
  {2abbd250-98ce-47e4-9208-6b865cb4bf7f}, !- Schedule Ruleset Name
  0,                                      !- Rule Order
  {3a889f3e-4aca-4534-97f5-a8dc6ef40df1}, !- Day Schedule Name
  ,                                       !- Apply Sunday
  ,                                       !- Apply Monday
  ,                                       !- Apply Tuesday
  ,                                       !- Apply Wednesday
  ,                                       !- Apply Thursday
  ,                                       !- Apply Friday
  Yes;                                    !- Apply Saturday

OS:Schedule:Day,
  {3a889f3e-4aca-4534-97f5-a8dc6ef40df1}, !- Handle
  Medium Office Lighting Saturday Schedule, !- Name
  {bced09af-3f85-416b-90b0-80ac024b6c13}, !- Schedule Type Limits Name
  ,                                       !- Interpolate to Timestep
  6,                                      !- Hour 1
  0,                                      !- Minute 1
  0.05,                                   !- Value Until Time 1
  8,                                      !- Hour 2
  0,                                      !- Minute 2
  0.1,                                    !- Value Until Time 2
  14,                                     !- Hour 3
  0,                                      !- Minute 3
  0.5,                                    !- Value Until Time 3
  17,                                     !- Hour 4
  0,                                      !- Minute 4
  0.15,                                   !- Value Until Time 4
  24,                                     !- Hour 5
  0,                                      !- Minute 5
  0.05;                                   !- Value Until Time 5

OS:Schedule:Ruleset,
  {d5806fd7-1bc0-434f-8a18-25c0ce5a19e4}, !- Handle
  Medium Office Electric Equipment Schedule, !- Name
  {bced09af-3f85-416b-90b0-80ac024b6c13}, !- Schedule Type Limits Name
  {a3b7d7a0-f674-40f6-b93b-603275496da2}, !- Default Day Schedule Name
  {3a3d7a5a-d35e-49b5-a541-3f2ea8ee821f}, !- Summer Design Day Schedule Name
  {74dc599e-1d1b-4019-998d-7a12e88b817b}; !- Winter Design Day Schedule Name

OS:Schedule:Day,
  {a3b7d7a0-f674-40f6-b93b-603275496da2}, !- Handle
  Medium Office Electric Equipment All Other Days Schedule, !- Name
  {bced09af-3f85-416b-90b0-80ac024b6c13}, !- Schedule Type Limits Name
  ,                                       !- Interpolate to Timestep
  24,                                     !- Hour 1
  0,                                      !- Minute 1
  0.3;                                    !- Value Until Time 1

OS:Schedule:Day,
  {7161a2ce-ce2d-4b97-a43e-0d2693f0a4d0}, !- Handle
  Medium Office Electric Equipment Summer Design Day Schedule, !- Name
  ,                                       !- Schedule Type Limits Name
  ,                                       !- Interpolate to Timestep
  6,                                      !- Hour 1
  0,                                      !- Minute 1
  1,                                      !- Value Until Time 1
  24,                                     !- Hour 2
  0,                                      !- Minute 2
  0;                                      !- Value Until Time 2

OS:Schedule:Day,
  {3a3d7a5a-d35e-49b5-a541-3f2ea8ee821f}, !- Handle
  Medium Office Electric Equipment Summer Design Day Schedule 1, !- Name
  {bced09af-3f85-416b-90b0-80ac024b6c13}, !- Schedule Type Limits Name
  ,                                       !- Interpolate to Timestep
  6,                                      !- Hour 1
  0,                                      !- Minute 1
  1,                                      !- Value Until Time 1
  24,                                     !- Hour 2
  0,                                      !- Minute 2
  0;                                      !- Value Until Time 2

OS:Schedule:Day,
  {bfe8be1c-0ac0-4ac6-87a1-d7ae90e89f1e}, !- Handle
  Medium Office Electric Equipment Winter Design Day Schedule, !- Name
  ,                                       !- Schedule Type Limits Name
  ,                                       !- Interpolate to Timestep
  24,                                     !- Hour 1
  0,                                      !- Minute 1
  0;                                      !- Value Until Time 1

OS:Schedule:Day,
  {74dc599e-1d1b-4019-998d-7a12e88b817b}, !- Handle
  Medium Office Electric Equipment Winter Design Day Schedule 1, !- Name
  {bced09af-3f85-416b-90b0-80ac024b6c13}, !- Schedule Type Limits Name
  ,                                       !- Interpolate to Timestep
  24,                                     !- Hour 1
  0,                                      !- Minute 1
  0;                                      !- Value Until Time 1

OS:Schedule:Rule,
  {492f97a1-8c4f-446f-9ead-567d6ea9171f}, !- Handle
  Medium Office Electric Equipment Schedule Weekdays Rule, !- Name
  {d5806fd7-1bc0-434f-8a18-25c0ce5a19e4}, !- Schedule Ruleset Name
  1,                                      !- Rule Order
  {d785684e-65f9-438f-9a7c-37f9cef72d2d}, !- Day Schedule Name
  ,                                       !- Apply Sunday
  Yes,                                    !- Apply Monday
  Yes,                                    !- Apply Tuesday
  Yes,                                    !- Apply Wednesday
  Yes,                                    !- Apply Thursday
  Yes;                                    !- Apply Friday

OS:Schedule:Day,
  {d785684e-65f9-438f-9a7c-37f9cef72d2d}, !- Handle
  Medium Office Electric Equipment Weekdays Schedule, !- Name
  {bced09af-3f85-416b-90b0-80ac024b6c13}, !- Schedule Type Limits Name
  ,                                       !- Interpolate to Timestep
  8,                                      !- Hour 1
  0,                                      !- Minute 1
  0.4,                                    !- Value Until Time 1
  12,                                     !- Hour 2